*Heading
** Job name: Job-2 Model name: Model-1
** Generated by: Abaqus/CAE 6.14-5
*Preprint, echo=NO, model=NO, history=NO, contact=NO
**
** PARTS
**
*Part, name=Part-1
*Node
      1,           1.,           1.,           8.
      2,           1.,           0.,           8.
      3,           1.,          -1.,           8.
      4,           1.,           1.,           7.
      5,           1.,           0.,           7.
      6,           1.,          -1.,           7.
      7,           1.,           1.,           6.
      8,           1.,           0.,           6.
      9,           1.,          -1.,           6.
     10,           1.,           1.,           5.
     11,           1.,           0.,           5.
     12,           1.,          -1.,           5.
     13,           1.,           1.,           4.
     14,           1.,           0.,           4.
     15,           1.,          -1.,           4.
     16,           1.,           1.,           3.
     17,           1.,           0.,           3.
     18,           1.,          -1.,           3.
     19,           1.,           1.,           2.
     20,           1.,           0.,           2.
** ... 61 like lines cut
*Element, type=C3D8R
 1, 28, 29, 32, 31,  1,  2,  5,  4
 2, 29, 30, 33, 32,  2,  3,  6,  5
 3, 31, 32, 35, 34,  4,  5,  8,  7
 4, 32, 33, 36, 35,  5,  6,  9,  8
 5, 34, 35, 38, 37,  7,  8, 11, 10
 6, 35, 36, 39, 38,  8,  9, 12, 11
 7, 37, 38, 41, 40, 10, 11, 14, 13
 8, 38, 39, 42, 41, 11, 12, 15, 14
 9, 40, 41, 44, 43, 13, 14, 17, 16
10, 41, 42, 45, 44, 14, 15, 18, 17
11, 43, 44, 47, 46, 16, 17, 20, 19
12, 44, 45, 48, 47, 17, 18, 21, 20
13, 46, 47, 50, 49, 19, 20, 23, 22
14, 47, 48, 51, 50, 20, 21, 24, 23
15, 49, 50, 53, 52, 22, 23, 26, 25
16, 50, 51, 54, 53, 23, 24, 27, 26
17, 55, 56, 59, 58, 28, 29, 32, 31
18, 56, 57, 60, 59, 29, 30, 33, 32
19, 58, 59, 62, 61, 31, 32, 35, 34
20, 59, 60, 63, 62, 32, 33, 36, 35
** ... 12 like lines cut
*Nset, nset=Set-1, generate
  1,  81,   1
*Elset, elset=Set-1, generate
  1,  32,   1
** Section: Section-1
*Solid Section, elset=Set-1, material=Material-1
,
*End Part
**  
**
** ASSEMBLY
**
*Assembly, name=Assembly
**  
*Instance, name=Part-1-1, part=Part-1
*End Instance
**  
*Nset, nset=Set-1, instance=Part-1-1
 25, 26, 27, 52, 53, 54, 79, 80, 81
*Elset, elset=Set-1, instance=Part-1-1
 15, 16, 31, 32
*Nset, nset=Set-2, instance=Part-1-1
 25, 26, 27, 52, 53, 54, 79, 80, 81
*Elset, elset=Set-2, instance=Part-1-1
 15, 16, 31, 32
*Nset, nset=Set-4, instance=Part-1-1
 25, 26, 27, 52, 53, 54, 79, 80, 81
*Elset, elset=Set-4, instance=Part-1-1
 15, 16, 31, 32
*Nset, nset=Set-5, instance=Part-1-1
 25, 26, 27, 52, 53, 54, 79, 80, 81
*Elset, elset=Set-5, instance=Part-1-1
 15, 16, 31, 32
*Nset, nset=top, instance=Part-1-1
  1,  3, 55, 57
*End Assembly
*Amplitude, name=Amp-1
             0.,              0.,            0.01,              0.,            0.02,              0.,            0.03,              0.
           0.04,              0.,            0.05,              0.,            0.06,              0.,            0.07,              0.
           0.08,              0.,            0.09,              0.,             0.1,              0.,            0.11,              0.
           0.12,              0.,            0.13,              0.,            0.14,              0.,            0.15,              0.
           0.16,              0.,            0.17,              0.,            0.18,              0.,            0.19,              0.
            0.2,              0.,            0.21,              0.,            0.22,              0.,            0.23,              0.
           0.24,              0.,            0.25,              0.,            0.26,              0.,            0.27,              0.
           0.28,              0.,            0.29,              0.,             0.3,              0.,            0.31,              0.
           0.32,              0.,            0.33,              0.,            0.34,              0.,            0.35,              0.
           0.36,              0.,            0.37,              0.,            0.38,              0.,            0.39,              0.
            0.4,              0.,            0.41,              0.,            0.42,              0.,            0.43,              0.
           0.44,              0.,            0.45,              0.,            0.46,              0.,            0.47,              0.
           0.48,              0.,            0.49,              0.,             0.5,              0.,            0.51,              0.
           0.52,              0.,            0.53,              0.,            0.54,              0.,            0.55,              0.
           0.56,              0.,            0.57,              0.,            0.58,              0.,            0.59,              0.
            0.6,              0.,            0.61,              0.,            0.62,              0.,            0.63,              0.
           0.64,              0.,            0.65,              0.,            0.66,              0.,            0.67,              0.
           0.68,              0.,            0.69,              0.,             0.7,              0.,            0.71,              0.
           0.72,              0.,            0.73,              0.,            0.74,              0.,            0.75,              0.
           0.76,              0.,            0.77,              0.,            0.78,              0.,            0.79,              0.
** ... 480 like lines cut
** 
** MATERIALS
** 
*Material, name=Material-1
*Damping, alpha=0.25, beta=0.25
*Density
3800.,
*Elastic
 6.8e+06, 0.35
** ----------------------------------------------------------------
** 
** STEP: Step-2
** 
*Step, name=Step-2, nlgeom=NO, inc=2000
*Dynamic,direct
0.01,20.,
** 
** BOUNDARY CONDITIONS
** 
** Name: BC-2 Type: Acceleration/Angular acceleration
*Boundary, amplitude=Amp-1, type=ACCELERATION
Set-2, 1, 1, 1.
** Name: BC-3 Type: Displacement/Rotation
*Boundary
Set-4, 2, 2
Set-4, 3, 3
** 
** OUTPUT REQUESTS
** 
*Restart, write, frequency=0
** 
** FIELD OUTPUT: F-Output-2
** 
*Output, field, frequency=1
*Node Output
A, U, V
*Output, history, frequency=0
*End Step
